LAMMPS (15 Jan 2010)
Processor partition = 3
# Parallel replica dynamics model for a single vacancy in bulk Si
# events occur when a neighboring atom diffuses to the vacant site
# run this on multiple partitions as
#   mpirun -np 4 lmp_g++ -partition 4x1 -in in.prd

units           metal

atom_style      atomic
atom_modify     map array
boundary        p p p
atom_modify	sort 0 0.0

# temperature

variable t equal 1800.0

# coordination number cutoff

variable r equal 2.835

# minimization parameters

variable etol equal 1.0e-5
variable ftol equal 1.0e-5
variable maxiter equal 100
variable maxeval equal 100
variable dmax equal 1.0e-1

# diamond unit cell

variable a equal 5.431
lattice         custom $a                               a1 1.0 0.0 0.0                          a2 0.0 1.0 0.0                          a3 0.0 0.0 1.0                          basis 0.0 0.0 0.0                       basis 0.0 0.5 0.5                       basis 0.5 0.0 0.5                       basis 0.5 0.5 0.0                       basis 0.25 0.25 0.25                    basis 0.25 0.75 0.75                    basis 0.75 0.25 0.75                    basis 0.75 0.75 0.25
lattice         custom 5.431                               a1 1.0 0.0 0.0                          a2 0.0 1.0 0.0                          a3 0.0 0.0 1.0                          basis 0.0 0.0 0.0                       basis 0.0 0.5 0.5                       basis 0.5 0.0 0.5                       basis 0.5 0.5 0.0                       basis 0.25 0.25 0.25                    basis 0.25 0.75 0.75                    basis 0.75 0.25 0.75                    basis 0.75 0.75 0.25
Lattice spacing in x,y,z = 5.431 5.431 5.431

region          myreg block     0 4                                 0 4                                 0 4
create_box      1 myreg
Created orthogonal box = (0 0 0) to (21.724 21.724 21.724)
create_atoms    1 region myreg
Created 512 atoms

mass            1       28.06

group Si type 1
512 atoms in group Si

velocity all create $t 5287287 mom yes rot yes dist gaussian
velocity all create 1800 5287287 mom yes rot yes dist gaussian

# make a vacancy

group del id 300
1 atoms in group del
delete_atoms group del
Deleted 1 atoms, new total = 511

pair_style      sw
pair_coeff * * Si.sw Si

thermo          10

fix             1 all nvt $t $t 0.1
fix             1 all nvt 1800 $t 0.1
fix             1 all nvt 1800 1800 0.1

timestep        1.0e-3
neighbor        1.0 bin
neigh_modify    every 1 delay 10 check yes

# equilibrate

run             1000
Step Temp E_pair E_mol TotEng Press
0    1802.5039    -2211.666            0   -2092.8401    12351.692
Averages over the last 51 of 101 rows, steps 500 to 1000:
Temp E_pair E_mol TotEng Press
1157.16 -2132.82 0 -2056.53 8496.47
Loop time of 8.45157 on 1 procs for 1000 steps with 511 atoms

Pair  time (%) = 8.27141 (97.8684)
Neigh time (%) = 0.0874004 (1.03413)
Comm  time (%) = 0.0277309 (0.328116)
Outpt time (%) = 0.00159502 (0.0188725)
Other time (%) = 0.0634313 (0.750526)

# only output atoms near vacancy

compute coord all coord/atom $r
compute coord all coord/atom 2.835
dump events all custom 1 dump.prd id type x y z
dump_modify events thresh c_coord != 4

compute  patom all pe/atom
compute  pe all reduce sum c_patom
compute  satom all stress/atom
compute  str all reduce sum c_satom[1] c_satom[2] c_satom[3]
variable press equal (c_str[1]+c_str[2]+c_str[3])/(3*vol)

thermo_style custom step temp pe c_pe press v_press

compute         1 all event/displace 0.5

prd  2000 100 10 10 100 1 54985 temp 1800      min 1e-05 1e-05 100 100 vel all uniform
Step Temp PotEng pe Press press
1000    1328.5448   -2134.6343   -2134.6343    8722.3314   -8722.3314
Loop time of 0.166571 on 1 procs for 16 steps with 511 atoms
Step Temp PotEng pe Press press
1000    1328.5448   -2134.6343   -2134.6343    8722.3314   -8722.3314
Loop time of 0.875857 on 1 procs for 100 steps with 511 atoms
Step Temp PotEng pe Press press
1000    1792.2927   -2087.5911   -2087.5911    13970.673   -13970.673
Loop time of 0.920685 on 1 procs for 100 steps with 511 atoms
Step Temp PotEng pe Press press
1100      1772.87    -2085.907    -2085.907     13217.67    -13217.67
Loop time of 0.177702 on 1 procs for 18 steps with 511 atoms
Step Temp PotEng pe Press press
1100      1772.87   -2088.7287   -2088.7287    13889.043   -13889.043
Loop time of 0.948807 on 1 procs for 100 steps with 511 atoms
Step Temp PotEng pe Press press
1200    1860.3964   -2093.8616   -2093.8616    15216.442   -15216.442
Loop time of 0.166676 on 1 procs for 16 steps with 511 atoms
Step Temp PotEng pe Press press
1200    1860.3964   -2093.1442   -2093.1442    14393.214   -14393.214
Loop time of 0.967428 on 1 procs for 100 steps with 511 atoms
Step Temp PotEng pe Press press
1300    2129.6414   -2110.3023   -2110.3023     16151.73    -16151.73
Loop time of 0.160523 on 1 procs for 17 steps with 511 atoms
Step Temp PotEng pe Press press
1300    2129.6414   -2110.3023   -2110.3023     16151.73    -16151.73
Loop time of 0.911931 on 1 procs for 100 steps with 511 atoms
Step Temp PotEng pe Press press
1300    1815.3388   -2090.7892   -2090.7892    13021.107   -13021.107
Loop time of 1.04367 on 1 procs for 100 steps with 511 atoms
Step Temp PotEng pe Press press
1400    1756.0634   -2086.2668   -2086.2668    12581.008   -12581.008
Loop time of 0.152951 on 1 procs for 17 steps with 511 atoms
Step Temp PotEng pe Press press
1400    1756.0634   -2086.2668   -2086.2668    12581.008   -12581.008
Loop time of 0.914372 on 1 procs for 100 steps with 511 atoms
Step Temp PotEng pe Press press
1500     1866.364    -2092.824    -2092.824    14421.374   -14421.374
Loop time of 0.212788 on 1 procs for 17 steps with 511 atoms
Step Temp PotEng pe Press press
1500     1866.364   -2093.2259   -2093.2259    12762.339   -12762.339
Loop time of 0.923892 on 1 procs for 100 steps with 511 atoms
Step Temp PotEng pe Press press
1600    1756.8633   -2085.1834   -2085.1834    13470.236   -13470.236
Loop time of 0.192507 on 1 procs for 19 steps with 511 atoms
Step Temp PotEng pe Press press
1600    1756.8633   -2085.1834   -2085.1834    13470.236   -13470.236
Loop time of 0.927818 on 1 procs for 100 steps with 511 atoms
Step Temp PotEng pe Press press
1600    1797.4263   -2082.3377   -2082.3377    14073.957   -14073.957
Loop time of 0.910619 on 1 procs for 100 steps with 511 atoms
Step Temp PotEng pe Press press
1700    1788.2753   -2081.9442   -2081.9442    14367.848   -14367.848
Loop time of 0.192771 on 1 procs for 19 steps with 511 atoms
Step Temp PotEng pe Press press
1700    1788.2753   -2081.9442   -2081.9442    14367.848   -14367.848
Loop time of 0.913487 on 1 procs for 100 steps with 511 atoms
Step Temp PotEng pe Press press
1800     1821.914   -2084.0547   -2084.0547     14356.53    -14356.53
Loop time of 0.197032 on 1 procs for 17 steps with 511 atoms
Step Temp PotEng pe Press press
1800     1821.914   -2084.0547   -2084.0547     14356.53    -14356.53
Loop time of 0.975971 on 1 procs for 100 steps with 511 atoms
Step Temp PotEng pe Press press
1900    1867.2417    -2087.711    -2087.711    14203.811   -14203.811
Loop time of 0.179058 on 1 procs for 18 steps with 511 atoms
Step Temp PotEng pe Press press
1900    1867.2417    -2087.711    -2087.711    14203.811   -14203.811
Loop time of 0.920351 on 1 procs for 100 steps with 511 atoms
Step Temp PotEng pe Press press
2000    1861.4149    -2086.761    -2086.761    15563.494   -15563.494
Loop time of 0.161563 on 1 procs for 17 steps with 511 atoms
Step Temp PotEng pe Press press
2000    1861.4149   -2082.3657   -2082.3657    14274.358   -14274.358
Loop time of 0.900181 on 1 procs for 100 steps with 511 atoms
Step Temp PotEng pe Press press
2100    1758.6297   -2077.7405   -2077.7405    11494.933   -11494.933
Loop time of 0.181373 on 1 procs for 18 steps with 511 atoms
Step Temp PotEng pe Press press
2100    1758.6297   -2077.7405   -2077.7405    11494.933   -11494.933
Loop time of 0.896703 on 1 procs for 100 steps with 511 atoms
Step Temp PotEng pe Press press
2100     1763.586   -2087.7319   -2087.7319    11053.381   -11053.381
Loop time of 0.862608 on 1 procs for 100 steps with 511 atoms
Step Temp PotEng pe Press press
2200    1728.7039   -2084.4873   -2084.4873     11265.33    -11265.33
Loop time of 0.206835 on 1 procs for 18 steps with 511 atoms
Step Temp PotEng pe Press press
2200    1728.7039   -2084.4873   -2084.4873     11265.33    -11265.33
Loop time of 0.894073 on 1 procs for 100 steps with 511 atoms
Step Temp PotEng pe Press press
2300    1800.5241   -2078.1357   -2078.1357    11207.976   -11207.976
Loop time of 0.18908 on 1 procs for 19 steps with 511 atoms
Step Temp PotEng pe Press press
2300    1800.5241   -2078.1357   -2078.1357    11207.976   -11207.976
Loop time of 0.855519 on 1 procs for 100 steps with 511 atoms
Step Temp PotEng pe Press press
2400    1938.1832   -2083.8723   -2083.8723    11562.545   -11562.545
Loop time of 0.199836 on 1 procs for 18 steps with 511 atoms
Step Temp PotEng pe Press press
2400    1938.1832   -2083.8723   -2083.8723    11562.545   -11562.545
Loop time of 0.890432 on 1 procs for 100 steps with 511 atoms
Step Temp PotEng pe Press press
2500     1883.018   -2083.1073   -2083.1073    12357.342   -12357.342
Loop time of 0.22083 on 1 procs for 19 steps with 511 atoms
Step Temp PotEng pe Press press
2500     1883.018   -2083.1073   -2083.1073    12357.342   -12357.342
Loop time of 0.869612 on 1 procs for 100 steps with 511 atoms
Step Temp PotEng pe Press press
2600    1746.3111   -2081.1313   -2081.1313    9904.5415   -9904.5415
Loop time of 0.239325 on 1 procs for 18 steps with 511 atoms
Step Temp PotEng pe Press press
2600    1746.3111   -2081.1313   -2081.1313    9904.5415   -9904.5415
Loop time of 0.901982 on 1 procs for 100 steps with 511 atoms
Step Temp PotEng pe Press press
2700    1737.1938   -2083.4959   -2083.4959    10238.633   -10238.633
Loop time of 0.198383 on 1 procs for 18 steps with 511 atoms
Loop time of 0.914226 on 1 procs for 100 steps with 511 atoms
Loop time of 0.159918 on 1 procs for 17 steps with 511 atoms
Loop time of 0.909715 on 1 procs for 100 steps with 511 atoms
Loop time of 0.203321 on 1 procs for 21 steps with 511 atoms
Loop time of 0.920684 on 1 procs for 100 steps with 511 atoms
Loop time of 0.227642 on 1 procs for 21 steps with 511 atoms
Loop time of 27.0459 on 1 procs for 21 steps with 511 atoms

PRD stats:
  Dephase  time (%) = 3.61231 (13.3562)
  Dynamics time (%) = 18.3583 (67.8783)
  Quench   time (%) = 3.82011 (14.1246)
  Other    time (%) = 0.50999 (1.88564)
