LAMMPS (15 Jan 2010)
# RESquared ellipsoids in LJ background fluid

units	     lj
atom_style   ellipsoid
dimension    2

lattice	     sq 0.02
Lattice spacing in x,y,z = 7.07107 7.07107 7.07107
region	     box block 0 20 0 20 -0.5 0.5
create_box   2 box
Created orthogonal box = (0 0 -3.53553) to (141.421 141.421 3.53553)
create_atoms 1 box
Created 400 atoms

set	     group all type/fraction 2 0.1 95392
  45 settings made for type/fraction
set	     group all quat/random 18238
  400 settings made for quat/random

mass	     1 1.0
mass	     2 1.5
shape	     1 1 1 1
shape	     2 3 1 1

compute	     rot all temp/asphere
group	     spheroid type 1
355 atoms in group spheroid
variable     dof equal count(spheroid)+2
compute_modify rot extra 357

velocity     all create 2.4 87287 loop geom

#pair_style   gayberne 1.0 3.0 1.0 4.0
#pair_coeff   1 1 3.0 1.0 1 1 1 1 1 1 2.5
#pair_coeff   1 2 3.0 1.0 1 1 1 0 0 0
#pair_coeff   2 2 1.0 1.0 1 1 0.2 0 0 0

pair_style   resquared 4.0
pair_coeff   1 1 3.0 1 1 1 1 1 1 1 2.5
pair_coeff   1 2 3.0 1 1 1 1 0 0 0
pair_coeff   2 2 1.0 1 1 1 0.2 0 0 0

neighbor     0.8 bin

thermo_style custom step c_rot epair etotal press vol
thermo	     100

timestep     0.002

#dump	     1 all custom 100 dump.ellipse.gayberne #	     id type x y z quatw quati quatj quatk

dump	     1 all custom 100 dump.ellipse.resquared 	     id type x y z quatw quati quatj quatk

fix	     1 all npt/asphere 2.0 2.0 0.1 xyz 0.0 1.0 1.0
fix	     2 all enforce2d

compute_modify 1_temp extra 357

# equilibrate to shrink box around dilute system

run	     2000
Step rot E_pair TotEng Press Volume
0    2.2718861            0        2.394      0.04788        20000
Averages over the last 11 of 21 rows, steps 1000 to 2000:
rot E_pair TotEng Press Volume
2.01124 0.10619 2.1095 0.78818 2438.68
Loop time of 2.31973 on 1 procs for 2000 steps with 400 atoms

Pair  time (%) = 2.00801 (86.5624)
Neigh time (%) = 0.0140963 (0.607669)
Comm  time (%) = 0.0165806 (0.714764)
Outpt time (%) = 0.0357938 (1.54302)
Other time (%) = 0.245245 (10.5721)

# run dynamics on dense system

unfix	     1
fix	     1 all nve/asphere

run	     2000
Step rot E_pair TotEng Press Volume
2000    1.9340159   0.16879369    2.1186931    1.3526231    1658.4096
Averages over the last 11 of 21 rows, steps 3000 to 4000:
rot E_pair TotEng Press Volume
1.91973 0.184009 2.08272 1.35466 1658.41
Loop time of 4.08906 on 1 procs for 2000 steps with 400 atoms

Pair  time (%) = 3.81754 (93.3598)
Neigh time (%) = 0.00639486 (0.15639)
Comm  time (%) = 0.0218513 (0.534384)
Outpt time (%) = 0.0360107 (0.880661)
Other time (%) = 0.207263 (5.06872)
