LAMMPS (15 Jan 2010)
# 2d indenter simulation

dimension	2
boundary	p s p

atom_style	atomic
neighbor	0.3 bin
neigh_modify	delay 5

# create geometry

lattice		hex 0.9
Lattice spacing in x,y,z = 1.1327 1.96189 1.1327
region		box block 0 20 0 10 -0.25 0.25
create_box	2 box
Created orthogonal box = (0 0 -0.283174) to (22.6539 19.6189 0.283174)
create_atoms	1 box
Created 420 atoms

mass		1 1.0
mass		2 1.0

# LJ potentials

pair_style	lj/cut 2.5
pair_coeff	* * 1.0 1.0 2.5

# define groups

region	        1 block INF INF INF 1.25 INF INF
group		lower region 1
60 atoms in group lower
group		mobile subtract all lower
360 atoms in group mobile
set		group lower type 2
  60 settings made for type

# initial velocities

compute	  	new mobile temp
velocity	mobile create 0.2 482748 temp new
fix		1 all nve
fix		2 lower setforce 0.0 0.0 0.0
fix		3 all temp/rescale 100 0.1 0.1 0.01 1.0

# indenter

fix		4 all indent 1000.0 sphere 10 13 0 5.0 vel 0.0 -0.02 0.0
fix		5 all enforce2d

# Run with indenter

timestep	0.003
thermo		1000
thermo_modify	temp new

dump		1 all atom 250 dump.indent
run		30000
Step Temp E_pair E_mol TotEng Press Volume
0          0.2   -3.1727576            0   -3.0018052   -1.4364576    444.44898
Averages over the last 16 of 31 rows, steps 15000 to 30000:
Temp E_pair E_mol TotEng Press Volume
0.117572 -3.01453 0 -2.91403 1.15064 466.88
Loop time of 4.35538 on 1 procs for 30000 steps with 420 atoms

Pair  time (%) = 3.31685 (76.1553)
Neigh time (%) = 0.096602 (2.21799)
Comm  time (%) = 0.0599802 (1.37715)
Outpt time (%) = 0.0780416 (1.79184)
Other time (%) = 0.803903 (18.4577)

# Run without indenter

unfix           4
run		30000
Step Temp E_pair E_mol TotEng Press Volume
30000   0.11229533   -2.9715928            0    -2.875607    1.7064933     474.7603
Averages over the last 16 of 31 rows, steps 45000 to 60000:
Temp E_pair E_mol TotEng Press Volume
0.116335 -3.08012 0 -2.98068 -0.334886 465.866
Loop time of 3.99625 on 1 procs for 30000 steps with 420 atoms

Pair  time (%) = 3.28251 (82.1398)
Neigh time (%) = 0.0976484 (2.4435)
Comm  time (%) = 0.0598731 (1.49823)
Outpt time (%) = 0.078176 (1.95624)
Other time (%) = 0.478038 (11.9622)
