LAMMPS (15 Jan 2010)
# 2d indenter simulation

dimension	2
boundary	p s p

atom_style	atomic
neighbor	0.3 bin
neigh_modify	delay 5

# create geometry

lattice		hex 0.9
Lattice spacing in x,y,z = 1.1327 1.96189 1.1327
region		box block 0 20 0 10 -0.25 0.25
create_box	2 box
Created orthogonal box = (0 0 -0.283174) to (22.6539 19.6189 0.283174)
create_atoms	1 box
Created 420 atoms

mass		1 1.0
mass		2 1.0

# LJ potentials

pair_style	lj/cut 2.5
pair_coeff	* * 1.0 1.0 2.5

# define groups

region	        1 block INF INF INF 1.25 INF INF
group		lower region 1
60 atoms in group lower
group		mobile subtract all lower
360 atoms in group mobile
set		group lower type 2
  60 settings made for type

# initial velocities

compute	  	new mobile temp
velocity	mobile create 0.2 482748 temp new
fix		1 all nve
fix		2 lower setforce 0.0 0.0 0.0
fix		3 all temp/rescale 100 0.1 0.1 0.01 1.0

# indenter

fix		4 all indent 1000.0 sphere 10 13 0 5.0 vel 0.0 -0.02 0.0
fix		5 all enforce2d

# Run with indenter

timestep	0.003
thermo		1000
thermo_modify	temp new

dump		1 all atom 250 dump.indent
run		30000
Step Temp E_pair E_mol TotEng Press Volume
0          0.2   -3.1727576            0   -3.0018052   -1.4364576    444.44898
Averages over the last 16 of 31 rows, steps 15000 to 30000:
Temp E_pair E_mol TotEng Press Volume
0.118516 -3.01256 0 -2.91125 1.25983 464.314
Loop time of 12.5054 on 4 procs for 30000 steps with 420 atoms

Pair  time (%) = 1.06815 (8.54156)
Neigh time (%) = 0.0312489 (0.249884)
Comm  time (%) = 8.85114 (70.7788)
Outpt time (%) = 0.113761 (0.909701)
Other time (%) = 2.44105 (19.52)

# Run without indenter

unfix           4
run		30000
Step Temp E_pair E_mol TotEng Press Volume
30000   0.10870157   -2.9555739            0   -2.8626599    1.6368667    480.06355
Averages over the last 16 of 31 rows, steps 45000 to 60000:
Temp E_pair E_mol TotEng Press Volume
0.116641 -3.08024 0 -2.98054 -0.332833 465.12
Loop time of 13.0227 on 4 procs for 30000 steps with 420 atoms

Pair  time (%) = 1.04613 (8.03316)
Neigh time (%) = 0.0321465 (0.24685)
Comm  time (%) = 9.40179 (72.1955)
Outpt time (%) = 0.114501 (0.879247)
Other time (%) = 2.42811 (18.6452)
